/*--------------------------------*- C++ -*----------------------------------*\
  =========                 |
  \\      /  F ield         | OpenFOAM: The Open Source CFD Toolbox
   \\    /   O peration     | Website:  https://openfoam.org
    \\  /    A nd           | Version:  8
     \\/     M anipulation  |
\*---------------------------------------------------------------------------*/
FoamFile
{
    version     2.0;
    format      ascii;
    class       volScalarField;
    location    "0";
    object      O2;
}
// * * * * * * * * * * * * * * * * * * * * * * * * * * * * * * * * * * * * * //

dimensions      [0 0 0 0 0 0 0];

internalField   uniform 0.220185;

boundaryField
{
    fuel
    {
        type            fixedValue;
        value           uniform 0.220185;
    }
    air
    {
        type            fixedValue;
        value           uniform 0.220185;
    }
    outlet
    {
        type            inletOutlet;
        inletValue      uniform 0.233;
        value           uniform 0.233;
    }
    frontAndBack
    {
        type            empty;
    }
}


// ************************************************************************* //
